cdfs/ieee118cdf.txt
TAPE
 08/25/93 UW ARCHIVE            100.0 1961 W IEEE 118-BUS TEST SYSTEM
BUS DATA FOLLOWS                    118 ITEMS
   1 Riversde  V2  1  1  2  0.955  10.67     51.0     27.0      0.0     0.0     0.0  0.955    15.0    -5.0     0.0     0.0    1    1
   2 Pokagon   V2  1  1  0  0.971  11.22     20.0      9.0      0.0     0.0     0.0    0.0     0.0     0.0     0.0     0.0    0    2
   3 HickryCk  V2  1  1  0  0.968  11.56     39.0     10.0      0.0     0.0     0.0    0.0     0.0     0.0     0.0     0.0    0    3
   4 NwCarlsl  V2  1  1  2  0.998  15.28     30.0     12.0     -9.0     0.0     0.0  0.998   300.0  -300.0     0.0     0.0    4    4
   5 Olive     V2  1  1  0  1.002  15.73      0.0      0.0      0.0     0.0     0.0    0.0     0.0     0.0     0.0   -0.40    0    5
   6 Kankakee  V2  1  1  2  0.990  13.00     52.0     22.0      0.0     0.0     0.0  0.990    50.0   -13.0     0.0     0.0    6    6
   7 JacksnRd  V2  1  1  0  0.989  12.56     19.0      2.0      0.0     0.0     0.0    0.0     0.0     0.0     0.0     0.0    0    7
   8 Olive     V1  1  1  2  1.015  20.77      0.0      0.0    -28.0     0.0     0.0  1.015   300.0  -300.0     0.0     0.0    8    8
   9 Bequine   V1  1  1  0  1.043  28.02      0.0      0.0      0.0     0.0     0.0    0.0     0.0     0.0     0.0     0.0    0    9
  10 Breed     V1  1  1  2  1.050  35.61      0.0      0.0    450.0     0.0     0.0  1.050   200.0  -147.0     0.0     0.0   10   10
  11 SouthBnd  V2  1  1  0  0.985  12.72     70.0     23.0      0.0     0.0     0.0    0.0     0.0     0.0     0.0     0.0    0   11
  12 TwinBrch  V2  1  1  2  0.990  12.20     47.0     10.0     85.0     0.0     0.0  0.990   120.0   -35.0     0.0     0.0   12   12
  13 Concord   V2  1  1  0  0.968  11.35     34.0     16.0      0.0     0.0     0.0    0.0     0.0     0.0     0.0     0.0    0   13
  14 GoshenJt  V2  1  1  0  0.984  11.50     14.0      1.0      0.0     0.0     0.0    0.0     0.0     0.0     0.0     0.0    0   14
  15 FtWayne   V2  1  1  2  0.970  11.23     90.0     30.0      0.0     0.0     0.0  0.970    30.0   -10.0     0.0     0.0   15   15
  16 N. E.     V2  1  1  0  0.984  11.91     25.0     10.0      0.0     0.0     0.0    0.0     0.0     0.0     0.0     0.0    0   16
  17 Sorenson  V2  1  1  0  0.995  13.74     11.0      3.0      0.0     0.0     0.0    0.0     0.0     0.0     0.0     0.0    0   17
  18 McKinley  V2  1  1  2  0.973  11.53     60.0     34.0      0.0     0.0     0.0  0.973    50.0   -16.0     0.0     0.0   18   18
  19 Lincoln   V2  1  1  2  0.963  11.05     45.0     25.0      0.0     0.0     0.0  0.962    24.0    -8.0     0.0     0.0   19   19
  20 Adams     V2  1  1  0  0.958  11.93     18.0      3.0      0.0     0.0     0.0    0.0     0.0     0.0     0.0     0.0    0   20
  21 Jay       V2  1  1  0  0.959  13.52     14.0      8.0      0.0     0.0     0.0    0.0     0.0     0.0     0.0     0.0    0   21
  22 Randolph  V2  1  1  0  0.970  16.08     10.0      5.0      0.0     0.0     0.0    0.0     0.0     0.0     0.0     0.0    0   22
  23 CollCrnr  V2  1  1  0  1.000  21.00      7.0      3.0      0.0     0.0     0.0    0.0     0.0     0.0     0.0     0.0    0   23
  24 Trenton   V2  1  1  2  0.992  20.89      0.0      0.0    -13.0     0.0     0.0  0.992   300.0  -300.0     0.0     0.0   24   24
  25 TannrsCk  V2  1  1  2  1.050  27.93      0.0      0.0    220.0     0.0     0.0  1.050   140.0   -47.0     0.0     0.0   25   25
  26 TannrsCk  V1  1  1  2  1.015  29.71      0.0      0.0    314.0     0.0     0.0  1.015  1000.0 -1000.0     0.0     0.0   26   26
  27 Madison   V2  1  1  2  0.968  15.35     62.0     13.0     -9.0     0.0     0.0  0.968   300.0  -300.0     0.0     0.0   27   27
  28 Mullin    V2  1  1  0  0.962  13.62     17.0      7.0      0.0     0.0     0.0    0.0     0.0     0.0     0.0     0.0    0   28
  29 Grant     V2  1  1  0  0.963  12.63     24.0      4.0      0.0     0.0     0.0    0.0     0.0     0.0     0.0     0.0    0   29
  30 Sorenson  V1  1  1  0  0.968  18.79      0.0      0.0      0.0     0.0     0.0    0.0     0.0     0.0     0.0     0.0    0   30
  31 DeerCrk   V2  1  1  2  0.967  12.75     43.0     27.0      7.0     0.0     0.0  0.967   300.0  -300.0     0.0     0.0   31   31
  32 Delaware  V2  1  1  2  0.964  14.80     59.0     23.0      0.0     0.0     0.0  0.963    42.0   -14.0     0.0     0.0   32   32
  33 Haviland  V2  1  1  0  0.972  10.63     23.0      9.0      0.0     0.0     0.0    0.0     0.0     0.0     0.0     0.0    0   33
  34 Rockhill  V2  1  1  2  0.986  11.30     59.0     26.0      0.0     0.0     0.0  0.984    24.0    -8.0     0.0    0.14   34   34
  35 WestLima  V2  1  1  0  0.981  10.87     33.0      9.0      0.0     0.0     0.0    0.0     0.0     0.0     0.0     0.0    0   35
  36 Sterling  V2  1  1  2  0.980  10.87     31.0     17.0      0.0     0.0     0.0  0.980    24.0    -8.0     0.0     0.0   36   36
  37 EastLima  V2  1  1  0  0.992  11.77      0.0      0.0      0.0     0.0     0.0    0.0     0.0     0.0     0.0   -0.25    0   37
  38 EastLima  V1  1  1  0  0.962  16.91      0.0      0.0      0.0     0.0     0.0    0.0     0.0     0.0     0.0     0.0    0   38
  39 NwLibrty  V2  1  1  0  0.970   8.41     27.0     11.0      0.0     0.0     0.0    0.0     0.0     0.0     0.0     0.0    0   39
  40 West End  V2  1  1  2  0.970   7.35     20.0     23.0    -46.0     0.0     0.0  0.970   300.0  -300.0     0.0     0.0   40   40
  41 S.Tiffin  V2  1  1  0  0.967   6.92     37.0     10.0      0.0     0.0     0.0    0.0     0.0     0.0     0.0     0.0    0   41
  42 Howard    V2  1  1  2  0.985   8.53     37.0     23.0    -59.0     0.0     0.0  0.985   300.0  -300.0     0.0     0.0   42   42
  43 S.Kenton  V2  1  1  0  0.978  11.28     18.0      7.0      0.0     0.0     0.0    0.0     0.0     0.0     0.0     0.0    0   43
  44 WMVernon  V2  1  1  0  0.985  13.82     16.0      8.0      0.0     0.0     0.0    0.0     0.0     0.0     0.0    0.10    0   44
  45 N.Newark  V2  1  1  0  0.987  15.67     53.0     22.0      0.0     0.0     0.0    0.0     0.0     0.0     0.0    0.10    0   45
  46 W.Lancst  V2  1  1  2  1.005  18.49     28.0     10.0     19.0     0.0     0.0  1.005   100.0  -100.0     0.0    0.10   46   46
  47 Crooksvl  V2  1  1  0  1.017  20.73     34.0      0.0      0.0     0.0     0.0    0.0     0.0     0.0     0.0     0.0    0   47
  48 Zanesvll  V2  1  1  0  1.021  19.93     20.0     11.0      0.0     0.0     0.0    0.0     0.0     0.0     0.0    0.15    0   48
  49 Philo     V2  1  1  2  1.025  20.94     87.0     30.0    204.0     0.0     0.0  1.025   210.0   -85.0     0.0     0.0   49   49
  50 WCambrdg  V2  1  1  0  1.001  18.90     17.0      4.0      0.0     0.0     0.0    0.0     0.0     0.0     0.0     0.0    0   50
  51 Newcmrst  V2  1  1  0  0.967  16.28     17.0      8.0      0.0     0.0     0.0    0.0     0.0     0.0     0.0     0.0    0   51
  52 SCoshoct  V2  1  1  0  0.957  15.32     18.0      5.0      0.0     0.0     0.0    0.0     0.0     0.0     0.0     0.0    0   52
  53 Wooster   V2  1  1  0  0.946  14.35     23.0     11.0      0.0     0.0     0.0    0.0     0.0     0.0     0.0     0.0    0   53
  54 Torrey    V2  1  1  2  0.955  15.26    113.0     32.0     48.0     0.0     0.0  0.955   300.0  -300.0     0.0     0.0   54   54
  55 Wagenhls  V2  1  1  2  0.952  14.97     63.0     22.0      0.0     0.0     0.0  0.952    23.0    -8.0     0.0     0.0   55   55
  56 Sunnysde  V2  1  1  2  0.954  15.16     84.0     18.0      0.0     0.0     0.0  0.954    15.0    -8.0     0.0     0.0   56   56
  57 WNwPhil1  V2  1  1  0  0.971  16.36     12.0      3.0      0.0     0.0     0.0    0.0     0.0     0.0     0.0     0.0    0   57
  58 WNwPhil2  V2  1  1  0  0.959  15.51     12.0      3.0      0.0     0.0     0.0    0.0     0.0     0.0     0.0     0.0    0   58
  59 Tidd      V2  1  1  2  0.985  19.37    277.0    113.0    155.0     0.0     0.0  0.985   180.0   -60.0     0.0     0.0   59   59
  60 SWKammer  V2  1  1  0  0.993  23.15     78.0      3.0      0.0     0.0     0.0    0.0     0.0     0.0     0.0     0.0    0   60
  61 W.Kammer  V2  1  1  2  0.995  24.04      0.0      0.0    160.0     0.0     0.0  0.995   300.0  -100.0     0.0     0.0   61   61
  62 Natrium   V2  1  1  2  0.998  23.43     77.0     14.0      0.0     0.0     0.0  0.998    20.0   -20.0     0.0     0.0   62   62
  63 Tidd      V1  1  1  0  0.969  22.75      0.0      0.0      0.0     0.0     0.0    0.0     0.0     0.0     0.0     0.0    0   63
  64 Kammer    V1  1  1  0  0.984  24.52      0.0      0.0      0.0     0.0     0.0    0.0     0.0     0.0     0.0     0.0    0   64
  65 Muskngum  V1  1  1  2  1.005  27.65      0.0      0.0    391.0     0.0     0.0  1.005   200.0   -67.0     0.0     0.0   65   65
  66 Muskngum  V2  1  1  2  1.050  27.48     39.0     18.0    392.0     0.0     0.0  1.050   200.0   -67.0     0.0     0.0   66   66
  67 Summerfl  V2  1  1  0  1.020  24.84     28.0      7.0      0.0     0.0     0.0    0.0     0.0     0.0     0.0     0.0    0   67
  68 Sporn     V1  1  1  0  1.003  27.55      0.0      0.0      0.0     0.0     0.0    0.0     0.0     0.0     0.0     0.0    0   68
  69 Sporn     V2  1  1  3  1.035  30.00      0.0      0.0    516.4     0.0     0.0  1.035   300.0  -300.0     0.0     0.0   69   69
  70 Portsmth  V2  1  1  2  0.984  22.58     66.0     20.0      0.0     0.0     0.0  0.984    32.0   -10.0     0.0     0.0   70   70
  71 NPortsmt  V2  1  1  0  0.987  22.15      0.0      0.0      0.0     0.0     0.0    0.0     0.0     0.0     0.0     0.0    0   71
  72 Hillsbro  V2  1  1  2  0.980  20.98      0.0      0.0    -12.0     0.0     0.0  0.980   100.0  -100.0     0.0     0.0   72   72
  73 Sargents  V2  1  1  2  0.991  21.94      0.0      0.0     -6.0     0.0     0.0  0.991   100.0  -100.0     0.0     0.0   73   73
  74 Bellefnt  V2  1  1  2  0.958  21.64     68.0     27.0      0.0     0.0     0.0  0.958     9.0    -6.0     0.0    0.12   74   74
  75 SthPoint  V2  1  1  0  0.967  22.91     47.0     11.0      0.0     0.0     0.0    0.0     0.0     0.0     0.0     0.0    0   75
  76 Darrah    V2  1  1  2  0.943  21.77     68.0     36.0      0.0     0.0     0.0  0.943    23.0    -8.0     0.0     0.0   76   76
  77 Turner    V2  1  1  2  1.006  26.72     61.0     28.0      0.0     0.0     0.0  1.006    70.0   -20.0     0.0     0.0   77   77
  78 Chemical  V2  1  1  0  1.003  26.42     71.0     26.0      0.0     0.0     0.0    0.0     0.0     0.0     0.0     0.0    0   78
  79 CapitlHl  V2  1  1  0  1.009  26.72     39.0     32.0      0.0     0.0     0.0    0.0     0.0     0.0     0.0    0.20    0   79
  80 CabinCrk  V2  1  1  2  1.040  28.96    130.0     26.0    477.0     0.0     0.0  1.040   280.0  -165.0     0.0     0.0   80   80
  81 Kanawha   V1  1  1  0  0.997  28.10      0.0      0.0      0.0     0.0     0.0    0.0     0.0     0.0     0.0     0.0    0   81
  82 Logan     V2  1  1  0  0.989  27.24     54.0     27.0      0.0     0.0     0.0    0.0     0.0     0.0     0.0    0.20    0   82
  83 Sprigg    V2  1  1  0  0.985  28.42     20.0     10.0      0.0     0.0     0.0    0.0     0.0     0.0     0.0    0.10    0   83
  84 BetsyLne  V2  1  1  0  0.980  30.95     11.0      7.0      0.0     0.0     0.0    0.0     0.0     0.0     0.0     0.0    0   84
  85 BeaverCk  V2  1  1  2  0.985  32.51     24.0     15.0      0.0     0.0     0.0  0.985    23.0    -8.0     0.0     0.0   85   85
  86 Hazard    V2  1  1  0  0.987  31.14     21.0     10.0      0.0     0.0     0.0    0.0     0.0     0.0     0.0     0.0    0   86
  87 Pinevlle  V3  1  1  2  1.015  31.40      0.0      0.0      4.0     0.0     0.0  1.015  1000.0  -100.0     0.0     0.0   87   87
  88 Fremont   V2  1  1  0  0.987  35.64     48.0     10.0      0.0     0.0     0.0    0.0     0.0     0.0     0.0     0.0    0   88
  89 ClinchRv  V2  1  1  2  1.005  39.69      0.0      0.0    607.0     0.0     0.0  1.005   300.0  -210.0     0.0     0.0   89   89
  90 Holston   V2  1  1  2  0.985  33.29     78.0     42.0    -85.0     0.0     0.0  0.985   300.0  -300.0     0.0     0.0   90   90
  91 HolstonT  V2  1  1  2  0.980  33.31      0.0      0.0    -10.0     0.0     0.0  0.980   100.0  -100.0     0.0     0.0   91   91
  92 Saltvlle  V2  1  1  2  0.993  33.80     65.0     10.0      0.0     0.0     0.0  0.990     9.0    -3.0     0.0     0.0   92   92
  93 Tazewell  V2  1  1  0  0.987  30.79     12.0      7.0      0.0     0.0     0.0    0.0     0.0     0.0     0.0     0.0    0   93
  94 Switchbk  V2  1  1  0  0.991  28.64     30.0     16.0      0.0     0.0     0.0    0.0     0.0     0.0     0.0     0.0    0   94
  95 Caldwell  V2  1  1  0  0.981  27.67     42.0     31.0      0.0     0.0     0.0    0.0     0.0     0.0     0.0     0.0    0   95
  96 Baileysv  V2  1  1  0  0.993  27.51     38.0     15.0      0.0     0.0     0.0    0.0     0.0     0.0     0.0     0.0    0   96
  97 Sundial   V2  1  1  0  1.011  27.88     15.0      9.0      0.0     0.0     0.0    0.0     0.0     0.0     0.0     0.0    0   97
  98 Bradley   V2  1  1  0  1.024  27.40     34.0      8.0      0.0     0.0     0.0    0.0     0.0     0.0     0.0     0.0    0   98
  99 Hinton    V2  1  1  2  1.010  27.04      0.0      0.0    -42.0     0.0     0.0  1.010   100.0  -100.0     0.0     0.0   99   99
 100 Glen Lyn  V2  1  1  2  1.017  28.03     37.0     18.0    252.0     0.0     0.0  1.017   155.0   -50.0     0.0     0.0  100  100
 101 Wythe     V2  1  1  0  0.993  29.61     22.0     15.0      0.0     0.0     0.0    0.0     0.0     0.0     0.0     0.0    0  101
 102 Smythe    V2  1  1  0  0.991  32.30      5.0      3.0      0.0     0.0     0.0    0.0     0.0     0.0     0.0     0.0    0  102
 103 Claytor   V2  1  1  2  1.001  24.44     23.0     16.0     40.0     0.0     0.0  1.01     40.0   -15.0     0.0     0.0  103  103
 104 Hancock   V2  1  1  2  0.971  21.69     38.0     25.0      0.0     0.0     0.0  0.971    23.0    -8.0     0.0     0.0  104  104
 105 Roanoke   V2  1  1  2  0.965  20.57     31.0     26.0      0.0     0.0     0.0  0.965    23.0    -8.0     0.0    0.20  105  105
 106 Cloverdl  V2  1  1  0  0.962  20.32     43.0     16.0      0.0     0.0     0.0    0.0     0.0     0.0     0.0     0.0    0  106
 107 Reusens   V2  1  1  2  0.952  17.53     28.0     12.0    -22.0     0.0     0.0  0.952   200.0  -200.0     0.0    0.06  107  107
 108 Blaine    V2  1  1  0  0.967  19.38      2.0      1.0      0.0     0.0     0.0    0.0     0.0     0.0     0.0     0.0    0  108
 109 Franklin  V2  1  1  0  0.967  18.93      8.0      3.0      0.0     0.0     0.0    0.0     0.0     0.0     0.0     0.0    0  109
 110 Fieldale  V2  1  1  2  0.973  18.09     39.0     30.0      0.0     0.0     0.0  0.973    23.0    -8.0     0.0    0.06  110  110
 111 DanRiver  V2  1  1  2  0.980  19.74      0.0      0.0     36.0     0.0     0.0  0.980  1000.0  -100.0     0.0     0.0  111  111
 112 Danville  V2  1  1  2  0.975  14.99     25.0     13.0    -43.0     0.0     0.0  0.975  1000.0  -100.0     0.0     0.0  112  112
 113 Deer Crk  V2  1  1  2  0.993  13.74      0.0      0.0     -6.0     0.0     0.0  0.993   200.0  -100.0     0.0     0.0  113  113
 114 WMedford  V2  1  1  0  0.960  14.46      8.0      3.0      0.0     0.0     0.0    0.0     0.0     0.0     0.0     0.0    0  114
 115 Medford   V2  1  1  0  0.960  14.46     22.0      7.0      0.0     0.0     0.0    0.0     0.0     0.0     0.0     0.0    0  115
 116 KygerCrk  V2  1  1  2  1.005  27.12      0.0      0.0   -184.0     0.0     0.0  1.005  1000.0 -1000.0     0.0     0.0  116  116
 117 Corey     V2  1  1  0  0.974  10.67     20.0      8.0      0.0     0.0     0.0    0.0     0.0     0.0     0.0     0.0    0  117
 118 WHuntngd  V2  1  1  0  0.949  21.92     33.0     15.0      0.0     0.0     0.0    0.0     0.0     0.0     0.0     0.0    0  118
-999
BRANCH DATA FOLLOWS                 186 ITEMS
   1    2  1  1 1 0    0.0303    0.0999    0.0254     0     0     0    0 0     0.0     0.0    0.0    0.0    0.0     0.0    0.0     1
   1    3  1  1 1 0    0.0129    0.0424   0.01082     0     0     0    0 0     0.0     0.0    0.0    0.0    0.0     0.0    0.0     2
   4    5  1  1 1 0   0.00176   0.00798    0.0021     0     0     0    0 0     0.0     0.0    0.0    0.0    0.0     0.0    0.0     3
   3    5  1  1 1 0    0.0241     0.108    0.0284     0     0     0    0 0     0.0     0.0    0.0    0.0    0.0     0.0    0.0     4
   5    6  1  1 1 0    0.0119     0.054   0.01426     0     0     0    0 0     0.0     0.0    0.0    0.0    0.0     0.0    0.0     5
   6    7  1  1 1 0   0.00459    0.0208    0.0055     0     0     0    0 0     0.0     0.0    0.0    0.0    0.0     0.0    0.0     6
   8    9  1  1 1 0   0.00244    0.0305     1.162     0     0     0    0 0     0.0     0.0    0.0    0.0    0.0     0.0    0.0     7
   8    5  1  1 1 1       0.0    0.0267       0.0     0     0     0    0 0   0.985     0.0    0.0    0.0    0.0     0.0    0.0     8
   9   10  1  1 1 0   0.00258    0.0322      1.23     0     0     0    0 0     0.0     0.0    0.0    0.0    0.0     0.0    0.0     9
   4   11  1  1 1 0    0.0209    0.0688   0.01748     0     0     0    0 0     0.0     0.0    0.0    0.0    0.0     0.0    0.0    10
   5   11  1  1 1 0    0.0203    0.0682   0.01738     0     0     0    0 0     0.0     0.0    0.0    0.0    0.0     0.0    0.0    11
  11   12  1  1 1 0   0.00595    0.0196   0.00502     0     0     0    0 0     0.0     0.0    0.0    0.0    0.0     0.0    0.0    12
   2   12  1  1 1 0    0.0187    0.0616   0.01572     0     0     0    0 0     0.0     0.0    0.0    0.0    0.0     0.0    0.0    13
   3   12  1  1 1 0    0.0484      0.16    0.0406     0     0     0    0 0     0.0     0.0    0.0    0.0    0.0     0.0    0.0    14
   7   12  1  1 1 0   0.00862     0.034   0.00874     0     0     0    0 0     0.0     0.0    0.0    0.0    0.0     0.0    0.0    15
  11   13  1  1 1 0   0.02225    0.0731   0.01876     0     0     0    0 0     0.0     0.0    0.0    0.0    0.0     0.0    0.0    16
  12   14  1  1 1 0    0.0215    0.0707   0.01816     0     0     0    0 0     0.0     0.0    0.0    0.0    0.0     0.0    0.0    17
  13   15  1  1 1 0    0.0744    0.2444   0.06268     0     0     0    0 0     0.0     0.0    0.0    0.0    0.0     0.0    0.0    18
  14   15  1  1 1 0    0.0595     0.195    0.0502     0     0     0    0 0     0.0     0.0    0.0    0.0    0.0     0.0    0.0    19
  12   16  1  1 1 0    0.0212    0.0834    0.0214     0     0     0    0 0     0.0     0.0    0.0    0.0    0.0     0.0    0.0    20
  15   17  1  1 1 0    0.0132    0.0437    0.0444     0     0     0    0 0     0.0     0.0    0.0    0.0    0.0     0.0    0.0    21
  16   17  1  1 1 0    0.0454    0.1801    0.0466     0     0     0    0 0     0.0     0.0    0.0    0.0    0.0     0.0    0.0    22
  17   18  1  1 1 0    0.0123    0.0505   0.01298     0     0     0    0 0     0.0     0.0    0.0    0.0    0.0     0.0    0.0    23
  18   19  1  1 1 0   0.01119    0.0493   0.01142     0     0     0    0 0     0.0     0.0    0.0    0.0    0.0     0.0    0.0    24
  19   20  1  1 1 0    0.0252     0.117    0.0298     0     0     0    0 0     0.0     0.0    0.0    0.0    0.0     0.0    0.0    25
  15   19  1  1 1 0     0.012    0.0394    0.0101     0     0     0    0 0     0.0     0.0    0.0    0.0    0.0     0.0    0.0    26
  20   21  1  1 1 0    0.0183    0.0849    0.0216     0     0     0    0 0     0.0     0.0    0.0    0.0    0.0     0.0    0.0    27
  21   22  1  1 1 0    0.0209     0.097    0.0246     0     0     0    0 0     0.0     0.0    0.0    0.0    0.0     0.0    0.0    28
  22   23  1  1 1 0    0.0342     0.159    0.0404     0     0     0    0 0     0.0     0.0    0.0    0.0    0.0     0.0    0.0    29
  23   24  1  1 1 0    0.0135    0.0492    0.0498     0     0     0    0 0     0.0     0.0    0.0    0.0    0.0     0.0    0.0    30
  23   25  1  1 1 0    0.0156      0.08    0.0864     0     0     0    0 0     0.0     0.0    0.0    0.0    0.0     0.0    0.0    31
  26   25  1  1 1 1       0.0    0.0382       0.0     0     0     0    0 0   0.960     0.0    0.0    0.0    0.0     0.0    0.0    32
  25   27  1  1 1 0    0.0318     0.163    0.1764     0     0     0    0 0     0.0     0.0    0.0    0.0    0.0     0.0    0.0    33
  27   28  1  1 1 0   0.01913    0.0855    0.0216     0     0     0    0 0     0.0     0.0    0.0    0.0    0.0     0.0    0.0    34
  28   29  1  1 1 0    0.0237    0.0943    0.0238     0     0     0    0 0     0.0     0.0    0.0    0.0    0.0     0.0    0.0    35
  30   17  1  1 1 1       0.0    0.0388       0.0     0     0     0    0 0   0.960     0.0    0.0    0.0    0.0     0.0    0.0    36
   8   30  1  1 1 0   0.00431    0.0504     0.514     0     0     0    0 0     0.0     0.0    0.0    0.0    0.0     0.0    0.0    37
  26   30  1  1 1 0   0.00799     0.086     0.908     0     0     0    0 0     0.0     0.0    0.0    0.0    0.0     0.0    0.0    38
  17   31  1  1 1 0    0.0474    0.1563    0.0399     0     0     0    0 0     0.0     0.0    0.0    0.0    0.0     0.0    0.0    39
  29   31  1  1 1 0    0.0108    0.0331    0.0083     0     0     0    0 0     0.0     0.0    0.0    0.0    0.0     0.0    0.0    40
  23   32  1  1 1 0    0.0317    0.1153    0.1173     0     0     0    0 0     0.0     0.0    0.0    0.0    0.0     0.0    0.0    41
  31   32  1  1 1 0    0.0298    0.0985    0.0251     0     0     0    0 0     0.0     0.0    0.0    0.0    0.0     0.0    0.0    42
  27   32  1  1 1 0    0.0229    0.0755   0.01926     0     0     0    0 0     0.0     0.0    0.0    0.0    0.0     0.0    0.0    43
  15   33  1  1 1 0    0.0380    0.1244   0.03194     0     0     0    0 0     0.0     0.0    0.0    0.0    0.0     0.0    0.0    44
  19   34  1  1 1 0    0.0752     0.247    0.0632     0     0     0    0 0     0.0     0.0    0.0    0.0    0.0     0.0    0.0    45
  35   36  1  1 1 0   0.00224    0.0102   0.00268     0     0     0    0 0     0.0     0.0    0.0    0.0    0.0     0.0    0.0    46
  35   37  1  1 1 0     0.011    0.0497   0.01318     0     0     0    0 0     0.0     0.0    0.0    0.0    0.0     0.0    0.0    47
  33   37  1  1 1 0    0.0415     0.142    0.0366     0     0     0    0 0     0.0     0.0    0.0    0.0    0.0     0.0    0.0    48
  34   36  1  1 1 0   0.00871    0.0268   0.00568     0     0     0    0 0     0.0     0.0    0.0    0.0    0.0     0.0    0.0    49
  34   37  1  1 1 0   0.00256    0.0094   0.00984     0     0     0    0 0     0.0     0.0    0.0    0.0    0.0     0.0    0.0    50
  38   37  1  1 1 1       0.0    0.0375       0.0     0     0     0    0 0   0.935     0.0    0.0    0.0    0.0     0.0    0.0    51
  37   39  1  1 1 0    0.0321     0.106     0.027     0     0     0    0 0     0.0     0.0    0.0    0.0    0.0     0.0    0.0    52
  37   40  1  1 1 0    0.0593     0.168     0.042     0     0     0    0 0     0.0     0.0    0.0    0.0    0.0     0.0    0.0    53
  30   38  1  1 1 0   0.00464     0.054     0.422     0     0     0    0 0     0.0     0.0    0.0    0.0    0.0     0.0    0.0    54
  39   40  1  1 1 0    0.0184    0.0605   0.01552     0     0     0    0 0     0.0     0.0    0.0    0.0    0.0     0.0    0.0    55
  40   41  1  1 1 0    0.0145    0.0487   0.01222     0     0     0    0 0     0.0     0.0    0.0    0.0    0.0     0.0    0.0    56
  40   42  1  1 1 0    0.0555     0.183    0.0466     0     0     0    0 0     0.0     0.0    0.0    0.0    0.0     0.0    0.0    57
  41   42  1  1 1 0     0.041     0.135    0.0344     0     0     0    0 0     0.0     0.0    0.0    0.0    0.0     0.0    0.0    58
  43   44  1  1 1 0    0.0608    0.2454   0.06068     0     0     0    0 0     0.0     0.0    0.0    0.0    0.0     0.0    0.0    59
  34   43  1  1 1 0    0.0413    0.1681   0.04226     0     0     0    0 0     0.0     0.0    0.0    0.0    0.0     0.0    0.0    60
  44   45  1  1 1 0    0.0224    0.0901    0.0224     0     0     0    0 0     0.0     0.0    0.0    0.0    0.0     0.0    0.0    61
  45   46  1  1 1 0      0.04    0.1356    0.0332     0     0     0    0 0     0.0     0.0    0.0    0.0    0.0     0.0    0.0    62
  46   47  1  1 1 0     0.038     0.127    0.0316     0     0     0    0 0     0.0     0.0    0.0    0.0    0.0     0.0    0.0    63
  46   48  1  1 1 0    0.0601     0.189    0.0472     0     0     0    0 0     0.0     0.0    0.0    0.0    0.0     0.0    0.0    64
  47   49  1  1 1 0    0.0191    0.0625   0.01604     0     0     0    0 0     0.0     0.0    0.0    0.0    0.0     0.0    0.0    65
  42   49  1  1 1 0    0.0715     0.323     0.086     0     0     0    0 0     0.0     0.0    0.0    0.0    0.0     0.0    0.0    66
  42   49  1  1 1 0    0.0715     0.323     0.086     0     0     0    0 0     0.0     0.0    0.0    0.0    0.0     0.0    0.0    67
  45   49  1  1 1 0    0.0684     0.186    0.0444     0     0     0    0 0     0.0     0.0    0.0    0.0    0.0     0.0    0.0    68
  48   49  1  1 1 0    0.0179    0.0505   0.01258     0     0     0    0 0     0.0     0.0    0.0    0.0    0.0     0.0    0.0    69
  49   50  1  1 1 0    0.0267    0.0752   0.01874     0     0     0    0 0     0.0     0.0    0.0    0.0    0.0     0.0    0.0    70
  49   51  1  1 1 0    0.0486     0.137    0.0342     0     0     0    0 0     0.0     0.0    0.0    0.0    0.0     0.0    0.0    71
  51   52  1  1 1 0    0.0203    0.0588   0.01396     0     0     0    0 0     0.0     0.0    0.0    0.0    0.0     0.0    0.0    72
  52   53  1  1 1 0    0.0405    0.1635   0.04058     0     0     0    0 0     0.0     0.0    0.0    0.0    0.0     0.0    0.0    73
  53   54  1  1 1 0    0.0263     0.122     0.031     0     0     0    0 0     0.0     0.0    0.0    0.0    0.0     0.0    0.0    74
  49   54  1  1 1 0     0.073     0.289    0.0738     0     0     0    0 0     0.0     0.0    0.0    0.0    0.0     0.0    0.0    75
  49   54  1  1 1 0    0.0869     0.291     0.073     0     0     0    0 0     0.0     0.0    0.0    0.0    0.0     0.0    0.0    76
  54   55  1  1 1 0    0.0169    0.0707    0.0202     0     0     0    0 0     0.0     0.0    0.0    0.0    0.0     0.0    0.0    77
  54   56  1  1 1 0   0.00275   0.00955   0.00732     0     0     0    0 0     0.0     0.0    0.0    0.0    0.0     0.0    0.0    78
  55   56  1  1 1 0   0.00488    0.0151   0.00374     0     0     0    0 0     0.0     0.0    0.0    0.0    0.0     0.0    0.0    79
  56   57  1  1 1 0    0.0343    0.0966    0.0242     0     0     0    0 0     0.0     0.0    0.0    0.0    0.0     0.0    0.0    80
  50   57  1  1 1 0    0.0474     0.134    0.0332     0     0     0    0 0     0.0     0.0    0.0    0.0    0.0     0.0    0.0    81
  56   58  1  1 1 0    0.0343    0.0966    0.0242     0     0     0    0 0     0.0     0.0    0.0    0.0    0.0     0.0    0.0    82
  51   58  1  1 1 0    0.0255    0.0719   0.01788     0     0     0    0 0     0.0     0.0    0.0    0.0    0.0     0.0    0.0    83
  54   59  1  1 1 0    0.0503    0.2293    0.0598     0     0     0    0 0     0.0     0.0    0.0    0.0    0.0     0.0    0.0    84
  56   59  1  1 1 0    0.0825     0.251    0.0569     0     0     0    0 0     0.0     0.0    0.0    0.0    0.0     0.0    0.0    85
  56   59  1  1 1 0    0.0803     0.239    0.0536     0     0     0    0 0     0.0     0.0    0.0    0.0    0.0     0.0    0.0    86
  55   59  1  1 1 0   0.04739    0.2158   0.05646     0     0     0    0 0     0.0     0.0    0.0    0.0    0.0     0.0    0.0    87
  59   60  1  1 1 0    0.0317     0.145    0.0376     0     0     0    0 0     0.0     0.0    0.0    0.0    0.0     0.0    0.0    88
  59   61  1  1 1 0    0.0328      0.15    0.0388     0     0     0    0 0     0.0     0.0    0.0    0.0    0.0     0.0    0.0    89
  60   61  1  1 1 0   0.00264    0.0135   0.01456     0     0     0    0 0     0.0     0.0    0.0    0.0    0.0     0.0    0.0    90
  60   62  1  1 1 0    0.0123    0.0561   0.01468     0     0     0    0 0     0.0     0.0    0.0    0.0    0.0     0.0    0.0    91
  61   62  1  1 1 0   0.00824    0.0376    0.0098     0     0     0    0 0     0.0     0.0    0.0    0.0    0.0     0.0    0.0    92
  63   59  1  1 1 1       0.0    0.0386       0.0     0     0     0    0 0   0.960     0.0    0.0    0.0    0.0     0.0    0.0    93
  63   64  1  1 1 0   0.00172      0.02     0.216     0     0     0    0 0     0.0     0.0    0.0    0.0    0.0     0.0    0.0    94
  64   61  1  1 1 1       0.0    0.0268       0.0     0     0     0    0 0   0.985     0.0    0.0    0.0    0.0     0.0    0.0    95
  38   65  1  1 1 0   0.00901    0.0986     1.046     0     0     0    0 0     0.0     0.0    0.0    0.0    0.0     0.0    0.0    96
  64   65  1  1 1 0   0.00269    0.0302      0.38     0     0     0    0 0     0.0     0.0    0.0    0.0    0.0     0.0    0.0    97
  49   66  1  1 1 0     0.018    0.0919    0.0248     0     0     0    0 0     0.0     0.0    0.0    0.0    0.0     0.0    0.0    98
  49   66  1  1 1 0     0.018    0.0919    0.0248     0     0     0    0 0     0.0     0.0    0.0    0.0    0.0     0.0    0.0    99
  62   66  1  1 1 0    0.0482     0.218    0.0578     0     0     0    0 0     0.0     0.0    0.0    0.0    0.0     0.0    0.0   100
  62   67  1  1 1 0    0.0258     0.117     0.031     0     0     0    0 0     0.0     0.0    0.0    0.0    0.0     0.0    0.0   101
  65   66  1  1 1 1       0.0     0.037       0.0     0     0     0    0 0   0.935     0.0    0.0    0.0    0.0     0.0    0.0   102
  66   67  1  1 1 0    0.0224    0.1015   0.02682     0     0     0    0 0     0.0     0.0    0.0    0.0    0.0     0.0    0.0   103
  65   68  1  1 1 0   0.00138     0.016     0.638     0     0     0    0 0     0.0     0.0    0.0    0.0    0.0     0.0    0.0   104
  47   69  1  1 1 0    0.0844    0.2778   0.07092     0     0     0    0 0     0.0     0.0    0.0    0.0    0.0     0.0    0.0   105
  49   69  1  1 1 0    0.0985     0.324    0.0828     0     0     0    0 0     0.0     0.0    0.0    0.0    0.0     0.0    0.0   106
  68   69  1  1 1 1       0.0     0.037       0.0     0     0     0    0 0   0.935     0.0    0.0    0.0    0.0     0.0    0.0   107
  69   70  1  1 1 0      0.03     0.127     0.122     0     0     0    0 0     0.0     0.0    0.0    0.0    0.0     0.0    0.0   108
  24   70  1  1 1 0   0.00221    0.4115   0.10198     0     0     0    0 0     0.0     0.0    0.0    0.0    0.0     0.0    0.0   109
  70   71  1  1 1 0   0.00882    0.0355   0.00878     0     0     0    0 0     0.0     0.0    0.0    0.0    0.0     0.0    0.0   110
  24   72  1  1 1 0    0.0488     0.196    0.0488     0     0     0    0 0     0.0     0.0    0.0    0.0    0.0     0.0    0.0   111
  71   72  1  1 1 0    0.0446      0.18   0.04444     0     0     0    0 0     0.0     0.0    0.0    0.0    0.0     0.0    0.0   112
  71   73  1  1 1 0   0.00866    0.0454   0.01178     0     0     0    0 0     0.0     0.0    0.0    0.0    0.0     0.0    0.0   113
  70   74  1  1 1 0    0.0401    0.1323   0.03368     0     0     0    0 0     0.0     0.0    0.0    0.0    0.0     0.0    0.0   114
  70   75  1  1 1 0    0.0428     0.141     0.036     0     0     0    0 0     0.0     0.0    0.0    0.0    0.0     0.0    0.0   115
  69   75  1  1 1 0    0.0405     0.122     0.124     0     0     0    0 0     0.0     0.0    0.0    0.0    0.0     0.0    0.0   116
  74   75  1  1 1 0    0.0123    0.0406   0.01034     0     0     0    0 0     0.0     0.0    0.0    0.0    0.0     0.0    0.0   117
  76   77  1  1 1 0    0.0444     0.148    0.0368     0     0     0    0 0     0.0     0.0    0.0    0.0    0.0     0.0    0.0   118
  69   77  1  1 1 0    0.0309     0.101    0.1038     0     0     0    0 0     0.0     0.0    0.0    0.0    0.0     0.0    0.0   119
  75   77  1  1 1 0    0.0601    0.1999   0.04978     0     0     0    0 0     0.0     0.0    0.0    0.0    0.0     0.0    0.0   120
  77   78  1  1 1 0   0.00376    0.0124   0.01264     0     0     0    0 0     0.0     0.0    0.0    0.0    0.0     0.0    0.0   121
  78   79  1  1 1 0   0.00546    0.0244   0.00648     0     0     0    0 0     0.0     0.0    0.0    0.0    0.0     0.0    0.0   122
  77   80  1  1 1 0     0.017    0.0485    0.0472     0     0     0    0 0     0.0     0.0    0.0    0.0    0.0     0.0    0.0   123
  77   80  1  1 1 0    0.0294     0.105    0.0228     0     0     0    0 0     0.0     0.0    0.0    0.0    0.0     0.0    0.0   124
  79   80  1  1 1 0    0.0156    0.0704    0.0187     0     0     0    0 0     0.0     0.0    0.0    0.0    0.0     0.0    0.0   125
  68   81  1  1 1 0   0.00175    0.0202     0.808     0     0     0    0 0     0.0     0.0    0.0    0.0    0.0     0.0    0.0   126
  81   80  1  1 1 1       0.0     0.037       0.0     0     0     0    0 0   0.935     0.0    0.0    0.0    0.0     0.0    0.0   127
  77   82  1  1 1 0    0.0298    0.0853   0.08174     0     0     0    0 0     0.0     0.0    0.0    0.0    0.0     0.0    0.0   128
  82   83  1  1 1 0    0.0112   0.03665   0.03796     0     0     0    0 0     0.0     0.0    0.0    0.0    0.0     0.0    0.0   129
  83   84  1  1 1 0    0.0625     0.132    0.0258     0     0     0    0 0     0.0     0.0    0.0    0.0    0.0     0.0    0.0   130
  83   85  1  1 1 0     0.043     0.148    0.0348     0     0     0    0 0     0.0     0.0    0.0    0.0    0.0     0.0    0.0   131
  84   85  1  1 1 0    0.0302    0.0641   0.01234     0     0     0    0 0     0.0     0.0    0.0    0.0    0.0     0.0    0.0   132
  85   86  1  1 1 0     0.035     0.123    0.0276     0     0     0    0 0     0.0     0.0    0.0    0.0    0.0     0.0    0.0   133
  86   87  1  1 1 0   0.02828    0.2074    0.0445     0     0     0    0 0     0.0     0.0    0.0    0.0    0.0     0.0    0.0   134
  85   88  1  1 1 0      0.02     0.102    0.0276     0     0     0    0 0     0.0     0.0    0.0    0.0    0.0     0.0    0.0   135
  85   89  1  1 1 0    0.0239     0.173     0.047     0     0     0    0 0     0.0     0.0    0.0    0.0    0.0     0.0    0.0   136
  88   89  1  1 1 0    0.0139    0.0712   0.01934     0     0     0    0 0     0.0     0.0    0.0    0.0    0.0     0.0    0.0   137
  89   90  1  1 1 0    0.0518     0.188    0.0528     0     0     0    0 0     0.0     0.0    0.0    0.0    0.0     0.0    0.0   138
  89   90  1  1 1 0    0.0238    0.0997     0.106     0     0     0    0 0     0.0     0.0    0.0    0.0    0.0     0.0    0.0   139
  90   91  1  1 1 0    0.0254    0.0836    0.0214     0     0     0    0 0     0.0     0.0    0.0    0.0    0.0     0.0    0.0   140
  89   92  1  1 1 0    0.0099    0.0505    0.0548     0     0     0    0 0     0.0     0.0    0.0    0.0    0.0     0.0    0.0   141
  89   92  1  1 1 0    0.0393    0.1581    0.0414     0     0     0    0 0     0.0     0.0    0.0    0.0    0.0     0.0    0.0   142
  91   92  1  1 1 0    0.0387    0.1272   0.03268     0     0     0    0 0     0.0     0.0    0.0    0.0    0.0     0.0    0.0   143
  92   93  1  1 1 0    0.0258    0.0848    0.0218     0     0     0    0 0     0.0     0.0    0.0    0.0    0.0     0.0    0.0   144
  92   94  1  1 1 0    0.0481     0.158    0.0406     0     0     0    0 0     0.0     0.0    0.0    0.0    0.0     0.0    0.0   145
  93   94  1  1 1 0    0.0223    0.0732   0.01876     0     0     0    0 0     0.0     0.0    0.0    0.0    0.0     0.0    0.0   146
  94   95  1  1 1 0    0.0132    0.0434    0.0111     0     0     0    0 0     0.0     0.0    0.0    0.0    0.0     0.0    0.0   147
  80   96  1  1 1 0    0.0356     0.182    0.0494     0     0     0    0 0     0.0     0.0    0.0    0.0    0.0     0.0    0.0   148
  82   96  1  1 1 0    0.0162     0.053    0.0544     0     0     0    0 0     0.0     0.0    0.0    0.0    0.0     0.0    0.0   149
  94   96  1  1 1 0    0.0269    0.0869    0.0230     0     0     0    0 0     0.0     0.0    0.0    0.0    0.0     0.0    0.0   150
  80   97  1  1 1 0    0.0183    0.0934    0.0254     0     0     0    0 0     0.0     0.0    0.0    0.0    0.0     0.0    0.0   151
  80   98  1  1 1 0    0.0238     0.108    0.0286     0     0     0    0 0     0.0     0.0    0.0    0.0    0.0     0.0    0.0   152
  80   99  1  1 1 0    0.0454     0.206    0.0546     0     0     0    0 0     0.0     0.0    0.0    0.0    0.0     0.0    0.0   153
  92  100  1  1 1 0    0.0648     0.295    0.0472     0     0     0    0 0     0.0     0.0    0.0    0.0    0.0     0.0    0.0   154
  94  100  1  1 1 0    0.0178     0.058    0.0604     0     0     0    0 0     0.0     0.0    0.0    0.0    0.0     0.0    0.0   155
  95   96  1  1 1 0    0.0171    0.0547   0.01474     0     0     0    0 0     0.0     0.0    0.0    0.0    0.0     0.0    0.0   156
  96   97  1  1 1 0    0.0173    0.0885     0.024     0     0     0    0 0     0.0     0.0    0.0    0.0    0.0     0.0    0.0   157
  98  100  1  1 1 0    0.0397     0.179    0.0476     0     0     0    0 0     0.0     0.0    0.0    0.0    0.0     0.0    0.0   158
  99  100  1  1 1 0     0.018    0.0813    0.0216     0     0     0    0 0     0.0     0.0    0.0    0.0    0.0     0.0    0.0   159
 100  101  1  1 1 0    0.0277    0.1262    0.0328     0     0     0    0 0     0.0     0.0    0.0    0.0    0.0     0.0    0.0   160
  92  102  1  1 1 0    0.0123    0.0559   0.01464     0     0     0    0 0     0.0     0.0    0.0    0.0    0.0     0.0    0.0   161
 101  102  1  1 1 0    0.0246     0.112    0.0294     0     0     0    0 0     0.0     0.0    0.0    0.0    0.0     0.0    0.0   162
 100  103  1  1 1 0     0.016    0.0525    0.0536     0     0     0    0 0     0.0     0.0    0.0    0.0    0.0     0.0    0.0   163
 100  104  1  1 1 0    0.0451     0.204    0.0541     0     0     0    0 0     0.0     0.0    0.0    0.0    0.0     0.0    0.0   164
 103  104  1  1 1 0    0.0466    0.1584    0.0407     0     0     0    0 0     0.0     0.0    0.0    0.0    0.0     0.0    0.0   165
 103  105  1  1 1 0    0.0535    0.1625    0.0408     0     0     0    0 0     0.0     0.0    0.0    0.0    0.0     0.0    0.0   166
 100  106  1  1 1 0    0.0605     0.229     0.062     0     0     0    0 0     0.0     0.0    0.0    0.0    0.0     0.0    0.0   167
 104  105  1  1 1 0   0.00994    0.0378   0.00986     0     0     0    0 0     0.0     0.0    0.0    0.0    0.0     0.0    0.0   168
 105  106  1  1 1 0     0.014    0.0547   0.01434     0     0     0    0 0     0.0     0.0    0.0    0.0    0.0     0.0    0.0   169
 105  107  1  1 1 0     0.053     0.183    0.0472     0     0     0    0 0     0.0     0.0    0.0    0.0    0.0     0.0    0.0   170
 105  108  1  1 1 0    0.0261    0.0703   0.01844     0     0     0    0 0     0.0     0.0    0.0    0.0    0.0     0.0    0.0   171
 106  107  1  1 1 0     0.053     0.183    0.0472     0     0     0    0 0     0.0     0.0    0.0    0.0    0.0     0.0    0.0   172
 108  109  1  1 1 0    0.0105    0.0288    0.0076     0     0     0    0 0     0.0     0.0    0.0    0.0    0.0     0.0    0.0   173
 103  110  1  1 1 0   0.03906    0.1813    0.0461     0     0     0    0 0     0.0     0.0    0.0    0.0    0.0     0.0    0.0   174
 109  110  1  1 1 0    0.0278    0.0762    0.0202     0     0     0    0 0     0.0     0.0    0.0    0.0    0.0     0.0    0.0   175
 110  111  1  1 1 0     0.022    0.0755      0.02     0     0     0    0 0     0.0     0.0    0.0    0.0    0.0     0.0    0.0   176
 110  112  1  1 1 0    0.0247     0.064     0.062     0     0     0    0 0     0.0     0.0    0.0    0.0    0.0     0.0    0.0   177
  17  113  1  1 1 0   0.00913    0.0301   0.00768     0     0     0    0 0     0.0     0.0    0.0    0.0    0.0     0.0    0.0   178
  32  113  1  1 1 0    0.0615     0.203    0.0518     0     0     0    0 0     0.0     0.0    0.0    0.0    0.0     0.0    0.0   179
  32  114  1  1 1 0    0.0135    0.0612   0.01628     0     0     0    0 0     0.0     0.0    0.0    0.0    0.0     0.0    0.0   180
  27  115  1  1 1 0    0.0164    0.0741   0.01972     0     0     0    0 0     0.0     0.0    0.0    0.0    0.0     0.0    0.0   181
 114  115  1  1 1 0    0.0023    0.0104   0.00276     0     0     0    0 0     0.0     0.0    0.0    0.0    0.0     0.0    0.0   182
  68  116  1  1 1 0   0.00034   0.00405     0.164     0     0     0    0 0     0.0     0.0    0.0    0.0    0.0     0.0    0.0   183
  12  117  1  1 1 0    0.0329      0.14    0.0358     0     0     0    0 0     0.0     0.0    0.0    0.0    0.0     0.0    0.0   184
  75  118  1  1 1 0    0.0145    0.0481   0.01198     0     0     0    0 0     0.0     0.0    0.0    0.0    0.0     0.0    0.0   185
  76  118  1  1 1 0    0.0164    0.0544   0.01356     0     0     0    0 0     0.0     0.0    0.0    0.0    0.0     0.0    0.0   186
-999
LOSS ZONES FOLLOWS                    1 ITEMS
  1 IEEE 118-BUS
-99
INTERCHANGE DATA FOLLOWS              1 ITEMS
 1   80 CabinCrk  V2    0.0  999.99  AEP118  IEEE 118-BUS TEST SYSTEM
-9
TIE LINES FOLLOWS                     0 ITEMS
-999
END OF DATA